5330286


 35 39  0  0  0  0  0  0  0  0999 V2000
  -11.3001    2.7289  -19.9915 O   0  0  0  0  0  0  0  0  0  0  0  0
  -10.7625    2.5189  -17.7530 N   0  0  0  0  0  0  0  0  0  0  0  0
  -10.1470    2.3061  -15.4503 N   0  0  0  0  0  0  0  0  0  0  0  0
   -8.2332    3.4369  -14.5625 N   0  0  0  0  0  0  0  0  0  0  0  0
   -9.8990    2.8474  -16.6717 C   0  0  0  0  0  0  0  0  0  0  0  0
  -10.5718    3.0104  -19.0375 C   0  0  0  0  0  0  0  0  0  0  0  0
   -8.8304    3.7044  -16.9056 C   0  0  0  0  0  0  0  0  0  0  0  0
   -9.4078    3.9352  -19.2590 C   0  0  0  0  0  0  0  0  0  0  0  0
   -8.5885    4.2860  -18.2457 C   0  0  0  0  0  0  0  0  0  0  0  0
   -8.0290    3.9524  -15.7931 C   0  0  0  0  0  0  0  0  0  0  0  0
   -7.4287    5.2492  -18.3516 C   0  0  0  0  0  0  0  0  0  0  0  0
   -9.2982    2.6329  -14.4626 C   0  0  0  0  0  0  0  0  0  0  0  0
  -11.8568    1.6340  -17.4737 C   0  0  0  0  0  0  0  0  0  0  0  0
  -12.9991    2.3198  -16.7373 C   0  0  0  0  0  0  0  0  0  0  0  0
  -11.4714    0.4901  -16.5400 C   0  0  0  0  0  0  0  0  0  0  0  0
  -13.8024    1.1488  -16.1946 C   0  0  0  0  0  0  0  0  0  0  0  0
  -12.7613    0.0977  -15.8176 C   0  0  0  0  0  0  0  0  0  0  0  0
   -9.7184    5.4954  -20.9845 O   0  0  0  0  0  0  0  0  0  0  0  0
   -9.1859    4.4498  -20.6264 C   0  0  0  0  0  0  0  0  0  0  0  0
   -8.2905    3.6548  -21.5330 C   0  0  0  0  0  0  0  0  0  0  0  0
   -9.5550    2.0706  -13.1936 N   0  0  0  0  0  0  0  0  0  0  0  0
  -10.1918    1.2812  -13.2413 H   0  0  0  0  0  0  0  0  0  0  0  0
   -8.3073    1.5108  -11.2426 N   0  0  0  0  0  0  0  0  0  0  0  0
   -8.2443    3.0598   -9.3873 C   0  0  0  0  0  0  0  0  0  0  0  0
   -9.1022    2.3916  -11.9001 C   0  0  0  0  0  0  0  0  0  0  0  0
   -9.0603    3.9421  -10.0866 C   0  0  0  0  0  0  0  0  0  0  0  0
   -7.8994    1.8680  -10.0040 C   0  0  0  0  0  0  0  0  0  0  0  0
   -9.5005    3.6102  -11.3632 C   0  0  0  0  0  0  0  0  0  0  0  0
   -7.7853    3.3668   -8.1014 N   0  0  0  0  0  0  0  0  0  0  0  0
   -7.0845    4.0788   -5.4272 N   0  0  0  0  0  0  0  0  0  0  0  0
   -7.9851    2.4077   -7.0096 C   0  0  0  0  0  0  0  0  0  0  0  0
   -7.7328    4.7807   -7.7056 C   0  0  0  0  0  0  0  0  0  0  0  0
   -7.0097    2.6863   -5.8662 C   0  0  0  0  0  0  0  0  0  0  0  0
   -6.7654    4.9741   -6.5383 C   0  0  0  0  0  0  0  0  0  0  0  0
   -6.4168    4.2295   -4.6716 H   0  0  0  0  0  0  0  0  0  0  0  0
  1  6  2  0
 18 19  2  0
  2 13  1  0
  2  5  1  0
  2  6  1  0
  3  5  2  0
  3 12  1  0
 29 31  1  0
 29 32  1  0
 29 24  1  0
 30 33  1  0
 30 34  1  0
 30 35  1  0
  4 10  1  0
  4 12  2  0
 21 12  1  0
 21 25  1  0
 21 22  1  0
 23 25  2  0
 23 27  1  0
 13 14  1  0
 13 15  1  0
 14 16  1  0
 15 17  1  0
 16 17  1  0
  5  7  1  0
  6  8  1  0
  7  9  1  0
  7 10  2  0
  8  9  2  0
  8 19  1  0
  9 11  1  0
 19 20  1  0
 31 33  1  0
 32 34  1  0
 24 26  1  0
 24 27  2  0
 25 28  1  0
 26 28  2  0
M  END
> <PUBCHEM_COMPOUND_CID>
5330286

> <PUBCHEM_CONFORMER_RMSD>
1

> <PUBCHEM_CONFORMER_DIVERSEORDER>
1
15
18
10
7
29
4
11
20
9
2
13
14
12
19
23
17
3
16
5
25
21
8
22
6
24
27
28
26

> <PUBCHEM_MMFF94_PARTIAL_CHARGES>
35
1 -0.57
10 0.3
15 0.43
16 0.62
17 0.03
18 0.03
19 -0.17
2 -0.57
20 0.16
21 0.14
22 0.49
23 0.37
24 0.37
25 0.72
26 0.27
27 0.27
28 0.1
29 0.06
3 -0.48
30 0.41
31 -0.15
32 0.16
33 -0.15
4 -0.62
43 0.15
5 -0.84
55 0.36
56 0.4
6 -0.9
60 0.15
61 0.15
62 0.15
7 -0.62
8 -0.6
9 -0.62

> <PUBCHEM_EFFECTIVE_ROTOR_COUNT>
7.2

> <PUBCHEM_PHARMACOPHORE_FEATURES>
12
1 1 acceptor
1 2 acceptor
1 5 cation
1 6 cation
1 6 donor
1 8 donor
4 4 7 8 25 cation
5 10 11 12 13 14 rings
6 3 15 16 17 18 19 rings
6 4 7 15 17 20 25 rings
6 5 6 23 24 26 27 rings
6 9 28 30 31 32 33 rings

> <PUBCHEM_HEAVY_ATOM_COUNT>
33

> <PUBCHEM_ATOM_DEF_STEREO_COUNT>
0

> <PUBCHEM_ATOM_UDEF_STEREO_COUNT>
0

> <PUBCHEM_BOND_DEF_STEREO_COUNT>
0

> <PUBCHEM_BOND_UDEF_STEREO_COUNT>
0

> <PUBCHEM_ISOTOPIC_ATOM_COUNT>
0

> <PUBCHEM_COMPONENT_COUNT>
1

> <PUBCHEM_CACTVS_TAUTO_COUNT>
40

> <PUBCHEM_CONFORMER_ID>
0051556E00000001

> <PUBCHEM_MMFF94_ENERGY>
112.2749

> <PUBCHEM_FEATURE_SELFOVERLAP>
60.928

> <PUBCHEM_SHAPE_FINGERPRINT>
10 15 18113620079503070019
10006869 2 18337660911033075598
10290309 65 18261668160806117535
10411042 1 17833834151066205419
10454371 7 18271815635581365452
10670039 82 18336557045257456118
1100329 8 18410859884836000811
11049842 53 17758957408797603593
12838862 33 18336812152459687173
13402501 40 18342737446955876920
14117953 113 18407478864468048028
14394314 77 18411423895277741769
14765038 42 18129396924921918577
14790565 3 17476361600547476161
15001296 14 17970350532703957828
15131766 46 14906173210976569938
15274700 259 17751614621592705205
15276724 80 18340768130834745741
15320467 1 18410574002896420408
15419008 145 18261660486753782984
15927050 60 17837772592645818925
15961568 22 18410014329997083054
16992787 43 18338513046236606149
17899979 19 18333452040952282309
18336668 15 18113621230881223333
18608769 82 18412544336032783162
19611394 137 17970641906757496314
20642791 178 18188504557439950781
23559900 14 18270111435023130937
24771293 8 18343306942745392745
335352 9 18411415112686345429
350125 39 18410855456350191706
3918712 181 18337109077499781188
4073 2 18114186349793928090
4197921 191 18260551113780952428
44249763 50 17702651307228616506
46194498 28 17844816884810177550
5776283 40 18267308815225057968
59567204 34 18410575119318352852
59755656 215 18412826885246943006
9961470 85 18123745628582256128

> <PUBCHEM_SHAPE_MULTIPOLES>
632.52
19.34
4.33
0.9
22.72
0.89
-0.07
4.77
-1.48
-1.4
0.18
-0.02
0.52
0.57

> <PUBCHEM_SHAPE_SELFOVERLAP>
1371.714

> <PUBCHEM_SHAPE_VOLUME>
340.7

> <PUBCHEM_COORDINATE_TYPE>
2
5
10

> <minimizedAffinity>
-5.82909

> <CNNscore>
0.3841657937

> <CNNaffinity>
5.5563316345

> <CNN_VS>
2.1345524788

> <CNNaffinity_variance>
0.2602445483

$$$$
5330286


 35 39  0  0  0  0  0  0  0  0999 V2000
   -2.2372   44.0456   20.8080 O   0  0  0  0  0  0  0  0  0  0  0  0
   -1.1571   44.1867   18.7690 N   0  0  0  0  0  0  0  0  0  0  0  0
   -0.0053   44.2845   16.6736 N   0  0  0  0  0  0  0  0  0  0  0  0
    0.7631   42.2986   15.5804 N   0  0  0  0  0  0  0  0  0  0  0  0
   -0.5138   43.5307   17.6834 C   0  0  0  0  0  0  0  0  0  0  0  0
   -1.6870   43.4966   19.8510 C   0  0  0  0  0  0  0  0  0  0  0  0
   -0.4236   42.1441   17.6985 C   0  0  0  0  0  0  0  0  0  0  0  0
   -1.5744   41.9979   19.8384 C   0  0  0  0  0  0  0  0  0  0  0  0
   -0.9938   41.3471   18.8085 C   0  0  0  0  0  0  0  0  0  0  0  0
    0.2397   41.5921   16.6046 C   0  0  0  0  0  0  0  0  0  0  0  0
   -0.8810   39.8460   18.6741 C   0  0  0  0  0  0  0  0  0  0  0  0
    0.6052   43.6239   15.6768 C   0  0  0  0  0  0  0  0  0  0  0  0
   -1.2344   45.6185   18.7179 C   0  0  0  0  0  0  0  0  0  0  0  0
   -0.2760   46.2977   19.6864 C   0  0  0  0  0  0  0  0  0  0  0  0
   -2.5999   46.1544   19.1388 C   0  0  0  0  0  0  0  0  0  0  0  0
   -0.8215   47.7146   19.7635 C   0  0  0  0  0  0  0  0  0  0  0  0
   -2.3383   47.5575   19.6890 C   0  0  0  0  0  0  0  0  0  0  0  0
   -3.2782   40.8525   20.9754 O   0  0  0  0  0  0  0  0  0  0  0  0
   -2.1196   41.2552   20.9939 C   0  0  0  0  0  0  0  0  0  0  0  0
   -1.2058   41.0145   22.1612 C   0  0  0  0  0  0  0  0  0  0  0  0
    1.1341   44.4063   14.6278 N   0  0  0  0  0  0  0  0  0  0  0  0
    2.1450   44.4881   14.6772 H   0  0  0  0  0  0  0  0  0  0  0  0
   -0.6353   44.6133   13.0459 N   0  0  0  0  0  0  0  0  0  0  0  0
   -0.5931   46.4255   11.4461 C   0  0  0  0  0  0  0  0  0  0  0  0
    0.5354   45.0805   13.5470 C   0  0  0  0  0  0  0  0  0  0  0  0
    0.6068   46.8802   11.9815 C   0  0  0  0  0  0  0  0  0  0  0  0
   -1.1686   45.2979   12.0090 C   0  0  0  0  0  0  0  0  0  0  0  0
    1.1866   46.2027   13.0485 C   0  0  0  0  0  0  0  0  0  0  0  0
   -1.2006   47.0871   10.3728 N   0  0  0  0  0  0  0  0  0  0  0  0
   -2.6210   48.2564    8.1900 N   0  0  0  0  0  0  0  0  0  0  0  0
   -2.2700   48.0581   10.6283 C   0  0  0  0  0  0  0  0  0  0  0  0
   -1.2673   46.3913    9.0806 C   0  0  0  0  0  0  0  0  0  0  0  0
   -2.4356   48.9994    9.4354 C   0  0  0  0  0  0  0  0  0  0  0  0
   -1.4674   47.3926    7.9433 C   0  0  0  0  0  0  0  0  0  0  0  0
   -2.7197   48.9143    7.4174 H   0  0  0  0  0  0  0  0  0  0  0  0
  1  6  2  0
 18 19  2  0
  2 13  1  0
  2  5  1  0
  2  6  1  0
  3  5  2  0
  3 12  1  0
 29 31  1  0
 29 32  1  0
 29 24  1  0
 30 33  1  0
 30 34  1  0
 30 35  1  0
  4 10  1  0
  4 12  2  0
 21 12  1  0
 21 25  1  0
 21 22  1  0
 23 25  2  0
 23 27  1  0
 13 14  1  0
 13 15  1  0
 14 16  1  0
 15 17  1  0
 16 17  1  0
  5  7  1  0
  6  8  1  0
  7  9  1  0
  7 10  2  0
  8  9  2  0
  8 19  1  0
  9 11  1  0
 19 20  1  0
 31 33  1  0
 32 34  1  0
 24 26  1  0
 24 27  2  0
 25 28  1  0
 26 28  2  0
M  END
> <PUBCHEM_COMPOUND_CID>
5330286

> <PUBCHEM_CONFORMER_RMSD>
1

> <PUBCHEM_CONFORMER_DIVERSEORDER>
1
15
18
10
7
29
4
11
20
9
2
13
14
12
19
23
17
3
16
5
25
21
8
22
6
24
27
28
26

> <PUBCHEM_MMFF94_PARTIAL_CHARGES>
35
1 -0.57
10 0.3
15 0.43
16 0.62
17 0.03
18 0.03
19 -0.17
2 -0.57
20 0.16
21 0.14
22 0.49
23 0.37
24 0.37
25 0.72
26 0.27
27 0.27
28 0.1
29 0.06
3 -0.48
30 0.41
31 -0.15
32 0.16
33 -0.15
4 -0.62
43 0.15
5 -0.84
55 0.36
56 0.4
6 -0.9
60 0.15
61 0.15
62 0.15
7 -0.62
8 -0.6
9 -0.62

> <PUBCHEM_EFFECTIVE_ROTOR_COUNT>
7.2

> <PUBCHEM_PHARMACOPHORE_FEATURES>
12
1 1 acceptor
1 2 acceptor
1 5 cation
1 6 cation
1 6 donor
1 8 donor
4 4 7 8 25 cation
5 10 11 12 13 14 rings
6 3 15 16 17 18 19 rings
6 4 7 15 17 20 25 rings
6 5 6 23 24 26 27 rings
6 9 28 30 31 32 33 rings

> <PUBCHEM_HEAVY_ATOM_COUNT>
33

> <PUBCHEM_ATOM_DEF_STEREO_COUNT>
0

> <PUBCHEM_ATOM_UDEF_STEREO_COUNT>
0

> <PUBCHEM_BOND_DEF_STEREO_COUNT>
0

> <PUBCHEM_BOND_UDEF_STEREO_COUNT>
0

> <PUBCHEM_ISOTOPIC_ATOM_COUNT>
0

> <PUBCHEM_COMPONENT_COUNT>
1

> <PUBCHEM_CACTVS_TAUTO_COUNT>
40

> <PUBCHEM_CONFORMER_ID>
0051556E00000001

> <PUBCHEM_MMFF94_ENERGY>
112.2749

> <PUBCHEM_FEATURE_SELFOVERLAP>
60.928

> <PUBCHEM_SHAPE_FINGERPRINT>
10 15 18113620079503070019
10006869 2 18337660911033075598
10290309 65 18261668160806117535
10411042 1 17833834151066205419
10454371 7 18271815635581365452
10670039 82 18336557045257456118
1100329 8 18410859884836000811
11049842 53 17758957408797603593
12838862 33 18336812152459687173
13402501 40 18342737446955876920
14117953 113 18407478864468048028
14394314 77 18411423895277741769
14765038 42 18129396924921918577
14790565 3 17476361600547476161
15001296 14 17970350532703957828
15131766 46 14906173210976569938
15274700 259 17751614621592705205
15276724 80 18340768130834745741
15320467 1 18410574002896420408
15419008 145 18261660486753782984
15927050 60 17837772592645818925
15961568 22 18410014329997083054
16992787 43 18338513046236606149
17899979 19 18333452040952282309
18336668 15 18113621230881223333
18608769 82 18412544336032783162
19611394 137 17970641906757496314
20642791 178 18188504557439950781
23559900 14 18270111435023130937
24771293 8 18343306942745392745
335352 9 18411415112686345429
350125 39 18410855456350191706
3918712 181 18337109077499781188
4073 2 18114186349793928090
4197921 191 18260551113780952428
44249763 50 17702651307228616506
46194498 28 17844816884810177550
5776283 40 18267308815225057968
59567204 34 18410575119318352852
59755656 215 18412826885246943006
9961470 85 18123745628582256128

> <PUBCHEM_SHAPE_MULTIPOLES>
632.52
19.34
4.33
0.9
22.72
0.89
-0.07
4.77
-1.48
-1.4
0.18
-0.02
0.52
0.57

> <PUBCHEM_SHAPE_SELFOVERLAP>
1371.714

> <PUBCHEM_SHAPE_VOLUME>
340.7

> <PUBCHEM_COORDINATE_TYPE>
2
5
10

> <minimizedAffinity>
-5.98675

> <CNNscore>
0.3452694118

> <CNNaffinity>
6.0362272263

> <CNN_VS>
2.0841245651

> <CNNaffinity_variance>
0.0850099549

$$$$
5330286


 35 39  0  0  0  0  0  0  0  0999 V2000
   -0.5451   48.3447   20.9702 O   0  0  0  0  0  0  0  0  0  0  0  0
    0.0912   47.7344   18.8332 N   0  0  0  0  0  0  0  0  0  0  0  0
    0.7572   47.0454   16.6404 N   0  0  0  0  0  0  0  0  0  0  0  0
    0.2349   44.8629   15.8077 N   0  0  0  0  0  0  0  0  0  0  0  0
    0.1247   46.7509   17.8063 C   0  0  0  0  0  0  0  0  0  0  0  0
   -0.5154   47.5115   20.0621 C   0  0  0  0  0  0  0  0  0  0  0  0
   -0.4851   45.5235   18.0357 C   0  0  0  0  0  0  0  0  0  0  0  0
   -1.1665   46.1744   20.2800 C   0  0  0  0  0  0  0  0  0  0  0  0
   -1.1742   45.2325   19.3136 C   0  0  0  0  0  0  0  0  0  0  0  0
   -0.3842   44.6177   16.9818 C   0  0  0  0  0  0  0  0  0  0  0  0
   -1.8474   43.8831   19.4124 C   0  0  0  0  0  0  0  0  0  0  0  0
    0.7759   46.0825   15.7049 C   0  0  0  0  0  0  0  0  0  0  0  0
    0.7281   48.9907   18.5599 C   0  0  0  0  0  0  0  0  0  0  0  0
   -0.0400   49.8370   17.5541 C   0  0  0  0  0  0  0  0  0  0  0  0
    2.1006   48.8316   17.9118 C   0  0  0  0  0  0  0  0  0  0  0  0
    0.9929   50.8638   17.1181 C   0  0  0  0  0  0  0  0  0  0  0  0
    2.3168   50.1040   17.0909 C   0  0  0  0  0  0  0  0  0  0  0  0
   -1.1467   45.4262   22.5043 O   0  0  0  0  0  0  0  0  0  0  0  0
   -1.7996   45.9208   21.5910 C   0  0  0  0  0  0  0  0  0  0  0  0
   -3.2447   46.2971   21.7513 C   0  0  0  0  0  0  0  0  0  0  0  0
    1.4332   46.3876   14.4936 N   0  0  0  0  0  0  0  0  0  0  0  0
    2.4316   46.5243   14.6183 H   0  0  0  0  0  0  0  0  0  0  0  0
    1.8708   46.7930   12.1869 N   0  0  0  0  0  0  0  0  0  0  0  0
    0.0347   46.8093   10.6141 C   0  0  0  0  0  0  0  0  0  0  0  0
    0.9740   46.5342   13.1711 C   0  0  0  0  0  0  0  0  0  0  0  0
   -0.8602   46.5437   11.6446 C   0  0  0  0  0  0  0  0  0  0  0  0
    1.3778   46.9236   10.9348 C   0  0  0  0  0  0  0  0  0  0  0  0
   -0.3913   46.4027   12.9461 C   0  0  0  0  0  0  0  0  0  0  0  0
   -0.4077   46.9556    9.2944 N   0  0  0  0  0  0  0  0  0  0  0  0
   -1.2516   47.0075    6.5678 N   0  0  0  0  0  0  0  0  0  0  0  0
   -1.7856   46.5933    8.9450 C   0  0  0  0  0  0  0  0  0  0  0  0
    0.5799   46.8195    8.2153 C   0  0  0  0  0  0  0  0  0  0  0  0
   -2.2053   47.2752    7.6430 C   0  0  0  0  0  0  0  0  0  0  0  0
    0.0758   47.4946    6.9402 C   0  0  0  0  0  0  0  0  0  0  0  0
   -1.5585   47.4831    5.7198 H   0  0  0  0  0  0  0  0  0  0  0  0
  1  6  2  0
 18 19  2  0
  2 13  1  0
  2  5  1  0
  2  6  1  0
  3  5  2  0
  3 12  1  0
 29 31  1  0
 29 32  1  0
 29 24  1  0
 30 33  1  0
 30 34  1  0
 30 35  1  0
  4 10  1  0
  4 12  2  0
 21 12  1  0
 21 25  1  0
 21 22  1  0
 23 25  2  0
 23 27  1  0
 13 14  1  0
 13 15  1  0
 14 16  1  0
 15 17  1  0
 16 17  1  0
  5  7  1  0
  6  8  1  0
  7  9  1  0
  7 10  2  0
  8  9  2  0
  8 19  1  0
  9 11  1  0
 19 20  1  0
 31 33  1  0
 32 34  1  0
 24 26  1  0
 24 27  2  0
 25 28  1  0
 26 28  2  0
M  END
> <PUBCHEM_COMPOUND_CID>
5330286

> <PUBCHEM_CONFORMER_RMSD>
1

> <PUBCHEM_CONFORMER_DIVERSEORDER>
1
15
18
10
7
29
4
11
20
9
2
13
14
12
19
23
17
3
16
5
25
21
8
22
6
24
27
28
26

> <PUBCHEM_MMFF94_PARTIAL_CHARGES>
35
1 -0.57
10 0.3
15 0.43
16 0.62
17 0.03
18 0.03
19 -0.17
2 -0.57
20 0.16
21 0.14
22 0.49
23 0.37
24 0.37
25 0.72
26 0.27
27 0.27
28 0.1
29 0.06
3 -0.48
30 0.41
31 -0.15
32 0.16
33 -0.15
4 -0.62
43 0.15
5 -0.84
55 0.36
56 0.4
6 -0.9
60 0.15
61 0.15
62 0.15
7 -0.62
8 -0.6
9 -0.62

> <PUBCHEM_EFFECTIVE_ROTOR_COUNT>
7.2

> <PUBCHEM_PHARMACOPHORE_FEATURES>
12
1 1 acceptor
1 2 acceptor
1 5 cation
1 6 cation
1 6 donor
1 8 donor
4 4 7 8 25 cation
5 10 11 12 13 14 rings
6 3 15 16 17 18 19 rings
6 4 7 15 17 20 25 rings
6 5 6 23 24 26 27 rings
6 9 28 30 31 32 33 rings

> <PUBCHEM_HEAVY_ATOM_COUNT>
33

> <PUBCHEM_ATOM_DEF_STEREO_COUNT>
0

> <PUBCHEM_ATOM_UDEF_STEREO_COUNT>
0

> <PUBCHEM_BOND_DEF_STEREO_COUNT>
0

> <PUBCHEM_BOND_UDEF_STEREO_COUNT>
0

> <PUBCHEM_ISOTOPIC_ATOM_COUNT>
0

> <PUBCHEM_COMPONENT_COUNT>
1

> <PUBCHEM_CACTVS_TAUTO_COUNT>
40

> <PUBCHEM_CONFORMER_ID>
0051556E00000001

> <PUBCHEM_MMFF94_ENERGY>
112.2749

> <PUBCHEM_FEATURE_SELFOVERLAP>
60.928

> <PUBCHEM_SHAPE_FINGERPRINT>
10 15 18113620079503070019
10006869 2 18337660911033075598
10290309 65 18261668160806117535
10411042 1 17833834151066205419
10454371 7 18271815635581365452
10670039 82 18336557045257456118
1100329 8 18410859884836000811
11049842 53 17758957408797603593
12838862 33 18336812152459687173
13402501 40 18342737446955876920
14117953 113 18407478864468048028
14394314 77 18411423895277741769
14765038 42 18129396924921918577
14790565 3 17476361600547476161
15001296 14 17970350532703957828
15131766 46 14906173210976569938
15274700 259 17751614621592705205
15276724 80 18340768130834745741
15320467 1 18410574002896420408
15419008 145 18261660486753782984
15927050 60 17837772592645818925
15961568 22 18410014329997083054
16992787 43 18338513046236606149
17899979 19 18333452040952282309
18336668 15 18113621230881223333
18608769 82 18412544336032783162
19611394 137 17970641906757496314
20642791 178 18188504557439950781
23559900 14 18270111435023130937
24771293 8 18343306942745392745
335352 9 18411415112686345429
350125 39 18410855456350191706
3918712 181 18337109077499781188
4073 2 18114186349793928090
4197921 191 18260551113780952428
44249763 50 17702651307228616506
46194498 28 17844816884810177550
5776283 40 18267308815225057968
59567204 34 18410575119318352852
59755656 215 18412826885246943006
9961470 85 18123745628582256128

> <PUBCHEM_SHAPE_MULTIPOLES>
632.52
19.34
4.33
0.9
22.72
0.89
-0.07
4.77
-1.48
-1.4
0.18
-0.02
0.52
0.57

> <PUBCHEM_SHAPE_SELFOVERLAP>
1371.714

> <PUBCHEM_SHAPE_VOLUME>
340.7

> <PUBCHEM_COORDINATE_TYPE>
2
5
10

> <minimizedAffinity>
-5.34375

> <CNNscore>
0.3291145861

> <CNNaffinity>
5.7108764648

> <CNN_VS>
1.8795326948

> <CNNaffinity_variance>
0.0283079203

$$$$
5330286


 35 39  0  0  0  0  0  0  0  0999 V2000
  -12.1312   52.9463   23.4657 O   0  0  0  0  0  0  0  0  0  0  0  0
  -11.1555   52.6802   21.3869 N   0  0  0  0  0  0  0  0  0  0  0  0
  -10.2007   52.3977   19.2108 N   0  0  0  0  0  0  0  0  0  0  0  0
  -11.3333   53.1601   17.2448 N   0  0  0  0  0  0  0  0  0  0  0  0
  -11.2234   52.8587   19.9776 C   0  0  0  0  0  0  0  0  0  0  0  0
  -12.1638   53.1020   22.2432 C   0  0  0  0  0  0  0  0  0  0  0  0
  -12.3357   53.4920   19.4365 C   0  0  0  0  0  0  0  0  0  0  0  0
  -13.3537   53.7840   21.6282 C   0  0  0  0  0  0  0  0  0  0  0  0
  -13.4323   53.9914   20.2970 C   0  0  0  0  0  0  0  0  0  0  0  0
  -12.3234   53.6039   18.0477 C   0  0  0  0  0  0  0  0  0  0  0  0
  -14.5550   54.7141   19.5889 C   0  0  0  0  0  0  0  0  0  0  0  0
  -10.3139   52.5756   17.8848 C   0  0  0  0  0  0  0  0  0  0  0  0
   -9.9911   52.0252   21.9102 C   0  0  0  0  0  0  0  0  0  0  0  0
  -10.3078   50.6854   22.5601 C   0  0  0  0  0  0  0  0  0  0  0  0
   -9.3216   52.8125   23.0331 C   0  0  0  0  0  0  0  0  0  0  0  0
   -9.0595   50.4049   23.3812 C   0  0  0  0  0  0  0  0  0  0  0  0
   -8.6141   51.7698   23.9002 C   0  0  0  0  0  0  0  0  0  0  0  0
  -15.3744   53.4655   22.7784 O   0  0  0  0  0  0  0  0  0  0  0  0
  -14.4405   54.2210   22.5291 C   0  0  0  0  0  0  0  0  0  0  0  0
  -14.3448   55.5990   23.1187 C   0  0  0  0  0  0  0  0  0  0  0  0
   -9.2520   52.0964   17.0877 N   0  0  0  0  0  0  0  0  0  0  0  0
   -8.4738   51.7552   17.6434 H   0  0  0  0  0  0  0  0  0  0  0  0
   -8.7561   53.1219   14.9951 N   0  0  0  0  0  0  0  0  0  0  0  0
   -8.7333   51.7749   12.9875 C   0  0  0  0  0  0  0  0  0  0  0  0
   -9.0733   52.0038   15.6946 C   0  0  0  0  0  0  0  0  0  0  0  0
   -9.0588   50.6465   13.7319 C   0  0  0  0  0  0  0  0  0  0  0  0
   -8.5945   52.9781   13.6605 C   0  0  0  0  0  0  0  0  0  0  0  0
   -9.2333   50.7543   15.1073 C   0  0  0  0  0  0  0  0  0  0  0  0
   -8.5507   51.6971   11.6022 N   0  0  0  0  0  0  0  0  0  0  0  0
   -8.4310   51.5037    8.7565 N   0  0  0  0  0  0  0  0  0  0  0  0
   -8.7323   52.8957   10.7762 C   0  0  0  0  0  0  0  0  0  0  0  0
   -8.8342   50.4174   10.9385 C   0  0  0  0  0  0  0  0  0  0  0  0
   -8.0216   52.7335    9.4327 C   0  0  0  0  0  0  0  0  0  0  0  0
   -8.1187   50.3437    9.5901 C   0  0  0  0  0  0  0  0  0  0  0  0
   -7.9325   51.4251    7.8706 H   0  0  0  0  0  0  0  0  0  0  0  0
  1  6  2  0
 18 19  2  0
  2 13  1  0
  2  5  1  0
  2  6  1  0
  3  5  2  0
  3 12  1  0
 29 31  1  0
 29 32  1  0
 29 24  1  0
 30 33  1  0
 30 34  1  0
 30 35  1  0
  4 10  1  0
  4 12  2  0
 21 12  1  0
 21 25  1  0
 21 22  1  0
 23 25  2  0
 23 27  1  0
 13 14  1  0
 13 15  1  0
 14 16  1  0
 15 17  1  0
 16 17  1  0
  5  7  1  0
  6  8  1  0
  7  9  1  0
  7 10  2  0
  8  9  2  0
  8 19  1  0
  9 11  1  0
 19 20  1  0
 31 33  1  0
 32 34  1  0
 24 26  1  0
 24 27  2  0
 25 28  1  0
 26 28  2  0
M  END
> <PUBCHEM_COMPOUND_CID>
5330286

> <PUBCHEM_CONFORMER_RMSD>
1

> <PUBCHEM_CONFORMER_DIVERSEORDER>
1
15
18
10
7
29
4
11
20
9
2
13
14
12
19
23
17
3
16
5
25
21
8
22
6
24
27
28
26

> <PUBCHEM_MMFF94_PARTIAL_CHARGES>
35
1 -0.57
10 0.3
15 0.43
16 0.62
17 0.03
18 0.03
19 -0.17
2 -0.57
20 0.16
21 0.14
22 0.49
23 0.37
24 0.37
25 0.72
26 0.27
27 0.27
28 0.1
29 0.06
3 -0.48
30 0.41
31 -0.15
32 0.16
33 -0.15
4 -0.62
43 0.15
5 -0.84
55 0.36
56 0.4
6 -0.9
60 0.15
61 0.15
62 0.15
7 -0.62
8 -0.6
9 -0.62

> <PUBCHEM_EFFECTIVE_ROTOR_COUNT>
7.2

> <PUBCHEM_PHARMACOPHORE_FEATURES>
12
1 1 acceptor
1 2 acceptor
1 5 cation
1 6 cation
1 6 donor
1 8 donor
4 4 7 8 25 cation
5 10 11 12 13 14 rings
6 3 15 16 17 18 19 rings
6 4 7 15 17 20 25 rings
6 5 6 23 24 26 27 rings
6 9 28 30 31 32 33 rings

> <PUBCHEM_HEAVY_ATOM_COUNT>
33

> <PUBCHEM_ATOM_DEF_STEREO_COUNT>
0

> <PUBCHEM_ATOM_UDEF_STEREO_COUNT>
0

> <PUBCHEM_BOND_DEF_STEREO_COUNT>
0

> <PUBCHEM_BOND_UDEF_STEREO_COUNT>
0

> <PUBCHEM_ISOTOPIC_ATOM_COUNT>
0

> <PUBCHEM_COMPONENT_COUNT>
1

> <PUBCHEM_CACTVS_TAUTO_COUNT>
40

> <PUBCHEM_CONFORMER_ID>
0051556E00000001

> <PUBCHEM_MMFF94_ENERGY>
112.2749

> <PUBCHEM_FEATURE_SELFOVERLAP>
60.928

> <PUBCHEM_SHAPE_FINGERPRINT>
10 15 18113620079503070019
10006869 2 18337660911033075598
10290309 65 18261668160806117535
10411042 1 17833834151066205419
10454371 7 18271815635581365452
10670039 82 18336557045257456118
1100329 8 18410859884836000811
11049842 53 17758957408797603593
12838862 33 18336812152459687173
13402501 40 18342737446955876920
14117953 113 18407478864468048028
14394314 77 18411423895277741769
14765038 42 18129396924921918577
14790565 3 17476361600547476161
15001296 14 17970350532703957828
15131766 46 14906173210976569938
15274700 259 17751614621592705205
15276724 80 18340768130834745741
15320467 1 18410574002896420408
15419008 145 18261660486753782984
15927050 60 17837772592645818925
15961568 22 18410014329997083054
16992787 43 18338513046236606149
17899979 19 18333452040952282309
18336668 15 18113621230881223333
18608769 82 18412544336032783162
19611394 137 17970641906757496314
20642791 178 18188504557439950781
23559900 14 18270111435023130937
24771293 8 18343306942745392745
335352 9 18411415112686345429
350125 39 18410855456350191706
3918712 181 18337109077499781188
4073 2 18114186349793928090
4197921 191 18260551113780952428
44249763 50 17702651307228616506
46194498 28 17844816884810177550
5776283 40 18267308815225057968
59567204 34 18410575119318352852
59755656 215 18412826885246943006
9961470 85 18123745628582256128

> <PUBCHEM_SHAPE_MULTIPOLES>
632.52
19.34
4.33
0.9
22.72
0.89
-0.07
4.77
-1.48
-1.4
0.18
-0.02
0.52
0.57

> <PUBCHEM_SHAPE_SELFOVERLAP>
1371.714

> <PUBCHEM_SHAPE_VOLUME>
340.7

> <PUBCHEM_COORDINATE_TYPE>
2
5
10

> <minimizedAffinity>
-5.43628

> <CNNscore>
0.2571563721

> <CNNaffinity>
5.3596658707

> <CNN_VS>
1.3782721758

> <CNNaffinity_variance>
0.0511473343

$$$$
5330286


 35 39  0  0  0  0  0  0  0  0999 V2000
   -8.4452    9.7370   -0.5282 O   0  0  0  0  0  0  0  0  0  0  0  0
  -10.6149    9.0144   -0.1900 N   0  0  0  0  0  0  0  0  0  0  0  0
  -12.8443    8.2107    0.1419 N   0  0  0  0  0  0  0  0  0  0  0  0
  -13.2658    5.9669    0.8610 N   0  0  0  0  0  0  0  0  0  0  0  0
  -11.5074    7.9708    0.1799 C   0  0  0  0  0  0  0  0  0  0  0  0
   -9.2362    8.8505   -0.1992 C   0  0  0  0  0  0  0  0  0  0  0  0
  -10.9797    6.7429    0.5604 C   0  0  0  0  0  0  0  0  0  0  0  0
   -8.6956    7.5114    0.2176 C   0  0  0  0  0  0  0  0  0  0  0  0
   -9.5177    6.5118    0.6000 C   0  0  0  0  0  0  0  0  0  0  0  0
  -11.9296    5.7770    0.8860 C   0  0  0  0  0  0  0  0  0  0  0  0
   -9.0736    5.1522    1.0884 C   0  0  0  0  0  0  0  0  0  0  0  0
  -13.6494    7.1928    0.4860 C   0  0  0  0  0  0  0  0  0  0  0  0
  -11.1952   10.2692   -0.5740 C   0  0  0  0  0  0  0  0  0  0  0  0
  -12.7161   10.2265   -0.6255 C   0  0  0  0  0  0  0  0  0  0  0  0
  -10.8062   10.6953   -1.9868 C   0  0  0  0  0  0  0  0  0  0  0  0
  -13.0616   11.4665   -1.4343 C   0  0  0  0  0  0  0  0  0  0  0  0
  -11.9558   11.5748   -2.4814 C   0  0  0  0  0  0  0  0  0  0  0  0
   -6.6759    6.9362   -0.8300 O   0  0  0  0  0  0  0  0  0  0  0  0
   -7.2303    7.3211    0.1944 C   0  0  0  0  0  0  0  0  0  0  0  0
   -6.4686    7.6232    1.4530 C   0  0  0  0  0  0  0  0  0  0  0  0
  -15.0383    7.4412    0.4463 N   0  0  0  0  0  0  0  0  0  0  0  0
  -15.5816    6.5893    0.3451 H   0  0  0  0  0  0  0  0  0  0  0  0
  -15.5262    9.5209    1.5014 N   0  0  0  0  0  0  0  0  0  0  0  0
  -17.2968   10.9129    0.6225 C   0  0  0  0  0  0  0  0  0  0  0  0
  -15.7969    8.6246    0.5199 C   0  0  0  0  0  0  0  0  0  0  0  0
  -17.5506    9.9750   -0.3721 C   0  0  0  0  0  0  0  0  0  0  0  0
  -16.2829   10.6411    1.5268 C   0  0  0  0  0  0  0  0  0  0  0  0
  -16.7934    8.8101   -0.4310 C   0  0  0  0  0  0  0  0  0  0  0  0
  -18.0419   12.0946    0.7065 N   0  0  0  0  0  0  0  0  0  0  0  0
  -19.6895   14.3971    1.0712 N   0  0  0  0  0  0  0  0  0  0  0  0
  -17.6457   13.1380    1.6585 C   0  0  0  0  0  0  0  0  0  0  0  0
  -19.4752   12.0319    0.3902 C   0  0  0  0  0  0  0  0  0  0  0  0
  -18.2419   14.4863    1.2548 C   0  0  0  0  0  0  0  0  0  0  0  0
  -20.0052   13.4195    0.0306 C   0  0  0  0  0  0  0  0  0  0  0  0
  -20.0504   15.3099    0.7955 H   0  0  0  0  0  0  0  0  0  0  0  0
  1  6  2  0
 18 19  2  0
  2 13  1  0
  2  5  1  0
  2  6  1  0
  3  5  2  0
  3 12  1  0
 29 31  1  0
 29 32  1  0
 29 24  1  0
 30 33  1  0
 30 34  1  0
 30 35  1  0
  4 10  1  0
  4 12  2  0
 21 12  1  0
 21 25  1  0
 21 22  1  0
 23 25  2  0
 23 27  1  0
 13 14  1  0
 13 15  1  0
 14 16  1  0
 15 17  1  0
 16 17  1  0
  5  7  1  0
  6  8  1  0
  7  9  1  0
  7 10  2  0
  8  9  2  0
  8 19  1  0
  9 11  1  0
 19 20  1  0
 31 33  1  0
 32 34  1  0
 24 26  1  0
 24 27  2  0
 25 28  1  0
 26 28  2  0
M  END
> <PUBCHEM_COMPOUND_CID>
5330286

> <PUBCHEM_CONFORMER_RMSD>
1

> <PUBCHEM_CONFORMER_DIVERSEORDER>
1
15
18
10
7
29
4
11
20
9
2
13
14
12
19
23
17
3
16
5
25
21
8
22
6
24
27
28
26

> <PUBCHEM_MMFF94_PARTIAL_CHARGES>
35
1 -0.57
10 0.3
15 0.43
16 0.62
17 0.03
18 0.03
19 -0.17
2 -0.57
20 0.16
21 0.14
22 0.49
23 0.37
24 0.37
25 0.72
26 0.27
27 0.27
28 0.1
29 0.06
3 -0.48
30 0.41
31 -0.15
32 0.16
33 -0.15
4 -0.62
43 0.15
5 -0.84
55 0.36
56 0.4
6 -0.9
60 0.15
61 0.15
62 0.15
7 -0.62
8 -0.6
9 -0.62

> <PUBCHEM_EFFECTIVE_ROTOR_COUNT>
7.2

> <PUBCHEM_PHARMACOPHORE_FEATURES>
12
1 1 acceptor
1 2 acceptor
1 5 cation
1 6 cation
1 6 donor
1 8 donor
4 4 7 8 25 cation
5 10 11 12 13 14 rings
6 3 15 16 17 18 19 rings
6 4 7 15 17 20 25 rings
6 5 6 23 24 26 27 rings
6 9 28 30 31 32 33 rings

> <PUBCHEM_HEAVY_ATOM_COUNT>
33

> <PUBCHEM_ATOM_DEF_STEREO_COUNT>
0

> <PUBCHEM_ATOM_UDEF_STEREO_COUNT>
0

> <PUBCHEM_BOND_DEF_STEREO_COUNT>
0

> <PUBCHEM_BOND_UDEF_STEREO_COUNT>
0

> <PUBCHEM_ISOTOPIC_ATOM_COUNT>
0

> <PUBCHEM_COMPONENT_COUNT>
1

> <PUBCHEM_CACTVS_TAUTO_COUNT>
40

> <PUBCHEM_CONFORMER_ID>
0051556E00000001

> <PUBCHEM_MMFF94_ENERGY>
112.2749

> <PUBCHEM_FEATURE_SELFOVERLAP>
60.928

> <PUBCHEM_SHAPE_FINGERPRINT>
10 15 18113620079503070019
10006869 2 18337660911033075598
10290309 65 18261668160806117535
10411042 1 17833834151066205419
10454371 7 18271815635581365452
10670039 82 18336557045257456118
1100329 8 18410859884836000811
11049842 53 17758957408797603593
12838862 33 18336812152459687173
13402501 40 18342737446955876920
14117953 113 18407478864468048028
14394314 77 18411423895277741769
14765038 42 18129396924921918577
14790565 3 17476361600547476161
15001296 14 17970350532703957828
15131766 46 14906173210976569938
15274700 259 17751614621592705205
15276724 80 18340768130834745741
15320467 1 18410574002896420408
15419008 145 18261660486753782984
15927050 60 17837772592645818925
15961568 22 18410014329997083054
16992787 43 18338513046236606149
17899979 19 18333452040952282309
18336668 15 18113621230881223333
18608769 82 18412544336032783162
19611394 137 17970641906757496314
20642791 178 18188504557439950781
23559900 14 18270111435023130937
24771293 8 18343306942745392745
335352 9 18411415112686345429
350125 39 18410855456350191706
3918712 181 18337109077499781188
4073 2 18114186349793928090
4197921 191 18260551113780952428
44249763 50 17702651307228616506
46194498 28 17844816884810177550
5776283 40 18267308815225057968
59567204 34 18410575119318352852
59755656 215 18412826885246943006
9961470 85 18123745628582256128

> <PUBCHEM_SHAPE_MULTIPOLES>
632.52
19.34
4.33
0.9
22.72
0.89
-0.07
4.77
-1.48
-1.4
0.18
-0.02
0.52
0.57

> <PUBCHEM_SHAPE_SELFOVERLAP>
1371.714

> <PUBCHEM_SHAPE_VOLUME>
340.7

> <PUBCHEM_COORDINATE_TYPE>
2
5
10

> <minimizedAffinity>
-7.17138

> <CNNscore>
0.1971190423

> <CNNaffinity>
5.3688621521

> <CNN_VS>
1.0583050251

> <CNNaffinity_variance>
0.4835754931

$$$$
5330286


 35 39  0  0  0  0  0  0  0  0999 V2000
    3.6435   16.4274  -28.8671 O   0  0  0  0  0  0  0  0  0  0  0  0
    4.1119   18.4165  -27.7864 N   0  0  0  0  0  0  0  0  0  0  0  0
    4.6522   20.4544  -26.6542 N   0  0  0  0  0  0  0  0  0  0  0  0
    6.8813   21.3264  -26.6540 N   0  0  0  0  0  0  0  0  0  0  0  0
    5.0632   19.4066  -27.4154 C   0  0  0  0  0  0  0  0  0  0  0  0
    4.4487   17.3035  -28.5450 C   0  0  0  0  0  0  0  0  0  0  0  0
    6.3786   19.2625  -27.8397 C   0  0  0  0  0  0  0  0  0  0  0  0
    5.8790   17.1758  -28.9893 C   0  0  0  0  0  0  0  0  0  0  0  0
    6.7969   18.1139  -28.6754 C   0  0  0  0  0  0  0  0  0  0  0  0
    7.2416   20.2691  -27.4119 C   0  0  0  0  0  0  0  0  0  0  0  0
    8.2417   18.1072  -29.1188 C   0  0  0  0  0  0  0  0  0  0  0  0
    5.5869   21.3572  -26.3164 C   0  0  0  0  0  0  0  0  0  0  0  0
    2.7630   18.5999  -27.3331 C   0  0  0  0  0  0  0  0  0  0  0  0
    2.5664   19.9042  -26.5730 C   0  0  0  0  0  0  0  0  0  0  0  0
    2.3246   17.5371  -26.3294 C   0  0  0  0  0  0  0  0  0  0  0  0
    1.2449   19.6810  -25.8554 C   0  0  0  0  0  0  0  0  0  0  0  0
    1.2515   18.2044  -25.4676 C   0  0  0  0  0  0  0  0  0  0  0  0
    6.6293   14.9639  -29.2182 O   0  0  0  0  0  0  0  0  0  0  0  0
    6.2516   15.9858  -29.7823 C   0  0  0  0  0  0  0  0  0  0  0  0
    6.1396   16.0817  -31.2769 C   0  0  0  0  0  0  0  0  0  0  0  0
    5.1607   22.4457  -25.5253 N   0  0  0  0  0  0  0  0  0  0  0  0
    5.4380   22.3501  -24.5531 H   0  0  0  0  0  0  0  0  0  0  0  0
    4.2365   23.9515  -27.1237 N   0  0  0  0  0  0  0  0  0  0  0  0
    3.0267   25.9003  -26.3597 C   0  0  0  0  0  0  0  0  0  0  0  0
    4.4386   23.6162  -25.8250 C   0  0  0  0  0  0  0  0  0  0  0  0
    3.2502   25.5302  -25.0382 C   0  0  0  0  0  0  0  0  0  0  0  0
    3.5360   25.0842  -27.3568 C   0  0  0  0  0  0  0  0  0  0  0  0
    3.9665   24.3717  -24.7581 C   0  0  0  0  0  0  0  0  0  0  0  0
    2.3088   27.0603  -26.6722 N   0  0  0  0  0  0  0  0  0  0  0  0
    0.9444   29.5312  -27.0990 N   0  0  0  0  0  0  0  0  0  0  0  0
    2.9618   28.1402  -27.4201 C   0  0  0  0  0  0  0  0  0  0  0  0
    1.2359   27.4762  -25.7589 C   0  0  0  0  0  0  0  0  0  0  0  0
    1.9186   29.0455  -28.0748 C   0  0  0  0  0  0  0  0  0  0  0  0
    0.2541   28.4040  -26.4738 C   0  0  0  0  0  0  0  0  0  0  0  0
    0.2619   30.1233  -27.5713 H   0  0  0  0  0  0  0  0  0  0  0  0
  1  6  2  0
 18 19  2  0
  2 13  1  0
  2  5  1  0
  2  6  1  0
  3  5  2  0
  3 12  1  0
 29 31  1  0
 29 32  1  0
 29 24  1  0
 30 33  1  0
 30 34  1  0
 30 35  1  0
  4 10  1  0
  4 12  2  0
 21 12  1  0
 21 25  1  0
 21 22  1  0
 23 25  2  0
 23 27  1  0
 13 14  1  0
 13 15  1  0
 14 16  1  0
 15 17  1  0
 16 17  1  0
  5  7  1  0
  6  8  1  0
  7  9  1  0
  7 10  2  0
  8  9  2  0
  8 19  1  0
  9 11  1  0
 19 20  1  0
 31 33  1  0
 32 34  1  0
 24 26  1  0
 24 27  2  0
 25 28  1  0
 26 28  2  0
M  END
> <PUBCHEM_COMPOUND_CID>
5330286

> <PUBCHEM_CONFORMER_RMSD>
1

> <PUBCHEM_CONFORMER_DIVERSEORDER>
1
15
18
10
7
29
4
11
20
9
2
13
14
12
19
23
17
3
16
5
25
21
8
22
6
24
27
28
26

> <PUBCHEM_MMFF94_PARTIAL_CHARGES>
35
1 -0.57
10 0.3
15 0.43
16 0.62
17 0.03
18 0.03
19 -0.17
2 -0.57
20 0.16
21 0.14
22 0.49
23 0.37
24 0.37
25 0.72
26 0.27
27 0.27
28 0.1
29 0.06
3 -0.48
30 0.41
31 -0.15
32 0.16
33 -0.15
4 -0.62
43 0.15
5 -0.84
55 0.36
56 0.4
6 -0.9
60 0.15
61 0.15
62 0.15
7 -0.62
8 -0.6
9 -0.62

> <PUBCHEM_EFFECTIVE_ROTOR_COUNT>
7.2

> <PUBCHEM_PHARMACOPHORE_FEATURES>
12
1 1 acceptor
1 2 acceptor
1 5 cation
1 6 cation
1 6 donor
1 8 donor
4 4 7 8 25 cation
5 10 11 12 13 14 rings
6 3 15 16 17 18 19 rings
6 4 7 15 17 20 25 rings
6 5 6 23 24 26 27 rings
6 9 28 30 31 32 33 rings

> <PUBCHEM_HEAVY_ATOM_COUNT>
33

> <PUBCHEM_ATOM_DEF_STEREO_COUNT>
0

> <PUBCHEM_ATOM_UDEF_STEREO_COUNT>
0

> <PUBCHEM_BOND_DEF_STEREO_COUNT>
0

> <PUBCHEM_BOND_UDEF_STEREO_COUNT>
0

> <PUBCHEM_ISOTOPIC_ATOM_COUNT>
0

> <PUBCHEM_COMPONENT_COUNT>
1

> <PUBCHEM_CACTVS_TAUTO_COUNT>
40

> <PUBCHEM_CONFORMER_ID>
0051556E00000001

> <PUBCHEM_MMFF94_ENERGY>
112.2749

> <PUBCHEM_FEATURE_SELFOVERLAP>
60.928

> <PUBCHEM_SHAPE_FINGERPRINT>
10 15 18113620079503070019
10006869 2 18337660911033075598
10290309 65 18261668160806117535
10411042 1 17833834151066205419
10454371 7 18271815635581365452
10670039 82 18336557045257456118
1100329 8 18410859884836000811
11049842 53 17758957408797603593
12838862 33 18336812152459687173
13402501 40 18342737446955876920
14117953 113 18407478864468048028
14394314 77 18411423895277741769
14765038 42 18129396924921918577
14790565 3 17476361600547476161
15001296 14 17970350532703957828
15131766 46 14906173210976569938
15274700 259 17751614621592705205
15276724 80 18340768130834745741
15320467 1 18410574002896420408
15419008 145 18261660486753782984
15927050 60 17837772592645818925
15961568 22 18410014329997083054
16992787 43 18338513046236606149
17899979 19 18333452040952282309
18336668 15 18113621230881223333
18608769 82 18412544336032783162
19611394 137 17970641906757496314
20642791 178 18188504557439950781
23559900 14 18270111435023130937
24771293 8 18343306942745392745
335352 9 18411415112686345429
350125 39 18410855456350191706
3918712 181 18337109077499781188
4073 2 18114186349793928090
4197921 191 18260551113780952428
44249763 50 17702651307228616506
46194498 28 17844816884810177550
5776283 40 18267308815225057968
59567204 34 18410575119318352852
59755656 215 18412826885246943006
9961470 85 18123745628582256128

> <PUBCHEM_SHAPE_MULTIPOLES>
632.52
19.34
4.33
0.9
22.72
0.89
-0.07
4.77
-1.48
-1.4
0.18
-0.02
0.52
0.57

> <PUBCHEM_SHAPE_SELFOVERLAP>
1371.714

> <PUBCHEM_SHAPE_VOLUME>
340.7

> <PUBCHEM_COORDINATE_TYPE>
2
5
10

> <minimizedAffinity>
-6.33595

> <CNNscore>
0.1869427562

> <CNNaffinity>
4.8781299591

> <CNN_VS>
0.9119310379

> <CNNaffinity_variance>
0.2524624467

$$$$
5330286


 35 39  0  0  0  0  0  0  0  0999 V2000
    4.1665   16.3277  -29.2571 O   0  0  0  0  0  0  0  0  0  0  0  0
    4.5053   18.2387  -28.0011 N   0  0  0  0  0  0  0  0  0  0  0  0
    4.9129   20.1983  -26.6894 N   0  0  0  0  0  0  0  0  0  0  0  0
    7.0780   21.2158  -26.6091 N   0  0  0  0  0  0  0  0  0  0  0  0
    5.3896   19.2535  -27.5417 C   0  0  0  0  0  0  0  0  0  0  0  0
    4.9125   17.2239  -28.8568 C   0  0  0  0  0  0  0  0  0  0  0  0
    6.7093   19.2377  -27.9765 C   0  0  0  0  0  0  0  0  0  0  0  0
    6.3456   17.2339  -29.3098 C   0  0  0  0  0  0  0  0  0  0  0  0
    7.1998   18.2000  -28.9120 C   0  0  0  0  0  0  0  0  0  0  0  0
    7.5047   20.2579  -27.4590 C   0  0  0  0  0  0  0  0  0  0  0  0
    8.6393   18.3312  -29.3533 C   0  0  0  0  0  0  0  0  0  0  0  0
    5.7863   21.1283  -26.2710 C   0  0  0  0  0  0  0  0  0  0  0  0
    3.1496   18.2886  -27.5340 C   0  0  0  0  0  0  0  0  0  0  0  0
    2.7394   17.0354  -26.7732 C   0  0  0  0  0  0  0  0  0  0  0  0
    2.1329   18.3605  -28.6698 C   0  0  0  0  0  0  0  0  0  0  0  0
    1.2221   17.1285  -26.7621 C   0  0  0  0  0  0  0  0  0  0  0  0
    0.8542   17.7293  -28.1165 C   0  0  0  0  0  0  0  0  0  0  0  0
    6.6968   16.2754  -31.4230 O   0  0  0  0  0  0  0  0  0  0  0  0
    6.7934   16.1481  -30.2067 C   0  0  0  0  0  0  0  0  0  0  0  0
    7.3677   14.9135  -29.5730 C   0  0  0  0  0  0  0  0  0  0  0  0
    5.2919   22.1098  -25.3851 N   0  0  0  0  0  0  0  0  0  0  0  0
    5.8630   22.2015  -24.5506 H   0  0  0  0  0  0  0  0  0  0  0  0
    3.3757   23.0785  -24.3526 N   0  0  0  0  0  0  0  0  0  0  0  0
    2.0255   24.6537  -25.5940 C   0  0  0  0  0  0  0  0  0  0  0  0
    4.1783   22.9689  -25.4405 C   0  0  0  0  0  0  0  0  0  0  0  0
    2.8668   24.5200  -26.6930 C   0  0  0  0  0  0  0  0  0  0  0  0
    2.3208   23.9177  -24.4579 C   0  0  0  0  0  0  0  0  0  0  0  0
    3.9622   23.6663  -26.6232 C   0  0  0  0  0  0  0  0  0  0  0  0
    0.9159   25.5056  -25.6345 N   0  0  0  0  0  0  0  0  0  0  0  0
   -1.3049   27.2680  -25.9680 N   0  0  0  0  0  0  0  0  0  0  0  0
   -0.4010   24.9680  -25.9931 C   0  0  0  0  0  0  0  0  0  0  0  0
    1.1408   26.9177  -25.9716 C   0  0  0  0  0  0  0  0  0  0  0  0
   -1.5110   25.8975  -25.5028 C   0  0  0  0  0  0  0  0  0  0  0  0
   -0.0238   27.7772  -25.4807 C   0  0  0  0  0  0  0  0  0  0  0  0
   -2.0573   27.8593  -25.6163 H   0  0  0  0  0  0  0  0  0  0  0  0
  1  6  2  0
 18 19  2  0
  2 13  1  0
  2  5  1  0
  2  6  1  0
  3  5  2  0
  3 12  1  0
 29 31  1  0
 29 32  1  0
 29 24  1  0
 30 33  1  0
 30 34  1  0
 30 35  1  0
  4 10  1  0
  4 12  2  0
 21 12  1  0
 21 25  1  0
 21 22  1  0
 23 25  2  0
 23 27  1  0
 13 14  1  0
 13 15  1  0
 14 16  1  0
 15 17  1  0
 16 17  1  0
  5  7  1  0
  6  8  1  0
  7  9  1  0
  7 10  2  0
  8  9  2  0
  8 19  1  0
  9 11  1  0
 19 20  1  0
 31 33  1  0
 32 34  1  0
 24 26  1  0
 24 27  2  0
 25 28  1  0
 26 28  2  0
M  END
> <PUBCHEM_COMPOUND_CID>
5330286

> <PUBCHEM_CONFORMER_RMSD>
1

> <PUBCHEM_CONFORMER_DIVERSEORDER>
1
15
18
10
7
29
4
11
20
9
2
13
14
12
19
23
17
3
16
5
25
21
8
22
6
24
27
28
26

> <PUBCHEM_MMFF94_PARTIAL_CHARGES>
35
1 -0.57
10 0.3
15 0.43
16 0.62
17 0.03
18 0.03
19 -0.17
2 -0.57
20 0.16
21 0.14
22 0.49
23 0.37
24 0.37
25 0.72
26 0.27
27 0.27
28 0.1
29 0.06
3 -0.48
30 0.41
31 -0.15
32 0.16
33 -0.15
4 -0.62
43 0.15
5 -0.84
55 0.36
56 0.4
6 -0.9
60 0.15
61 0.15
62 0.15
7 -0.62
8 -0.6
9 -0.62

> <PUBCHEM_EFFECTIVE_ROTOR_COUNT>
7.2

> <PUBCHEM_PHARMACOPHORE_FEATURES>
12
1 1 acceptor
1 2 acceptor
1 5 cation
1 6 cation
1 6 donor
1 8 donor
4 4 7 8 25 cation
5 10 11 12 13 14 rings
6 3 15 16 17 18 19 rings
6 4 7 15 17 20 25 rings
6 5 6 23 24 26 27 rings
6 9 28 30 31 32 33 rings

> <PUBCHEM_HEAVY_ATOM_COUNT>
33

> <PUBCHEM_ATOM_DEF_STEREO_COUNT>
0

> <PUBCHEM_ATOM_UDEF_STEREO_COUNT>
0

> <PUBCHEM_BOND_DEF_STEREO_COUNT>
0

> <PUBCHEM_BOND_UDEF_STEREO_COUNT>
0

> <PUBCHEM_ISOTOPIC_ATOM_COUNT>
0

> <PUBCHEM_COMPONENT_COUNT>
1

> <PUBCHEM_CACTVS_TAUTO_COUNT>
40

> <PUBCHEM_CONFORMER_ID>
0051556E00000001

> <PUBCHEM_MMFF94_ENERGY>
112.2749

> <PUBCHEM_FEATURE_SELFOVERLAP>
60.928

> <PUBCHEM_SHAPE_FINGERPRINT>
10 15 18113620079503070019
10006869 2 18337660911033075598
10290309 65 18261668160806117535
10411042 1 17833834151066205419
10454371 7 18271815635581365452
10670039 82 18336557045257456118
1100329 8 18410859884836000811
11049842 53 17758957408797603593
12838862 33 18336812152459687173
13402501 40 18342737446955876920
14117953 113 18407478864468048028
14394314 77 18411423895277741769
14765038 42 18129396924921918577
14790565 3 17476361600547476161
15001296 14 17970350532703957828
15131766 46 14906173210976569938
15274700 259 17751614621592705205
15276724 80 18340768130834745741
15320467 1 18410574002896420408
15419008 145 18261660486753782984
15927050 60 17837772592645818925
15961568 22 18410014329997083054
16992787 43 18338513046236606149
17899979 19 18333452040952282309
18336668 15 18113621230881223333
18608769 82 18412544336032783162
19611394 137 17970641906757496314
20642791 178 18188504557439950781
23559900 14 18270111435023130937
24771293 8 18343306942745392745
335352 9 18411415112686345429
350125 39 18410855456350191706
3918712 181 18337109077499781188
4073 2 18114186349793928090
4197921 191 18260551113780952428
44249763 50 17702651307228616506
46194498 28 17844816884810177550
5776283 40 18267308815225057968
59567204 34 18410575119318352852
59755656 215 18412826885246943006
9961470 85 18123745628582256128

> <PUBCHEM_SHAPE_MULTIPOLES>
632.52
19.34
4.33
0.9
22.72
0.89
-0.07
4.77
-1.48
-1.4
0.18
-0.02
0.52
0.57

> <PUBCHEM_SHAPE_SELFOVERLAP>
1371.714

> <PUBCHEM_SHAPE_VOLUME>
340.7

> <PUBCHEM_COORDINATE_TYPE>
2
5
10

> <minimizedAffinity>
-5.87057

> <CNNscore>
0.1818589717

> <CNNaffinity>
4.8854341507

> <CNN_VS>
0.8884600401

> <CNNaffinity_variance>
0.1759952009

$$$$
5330286


 35 39  0  0  0  0  0  0  0  0999 V2000
  -11.3104    2.6128  -20.2689 O   0  0  0  0  0  0  0  0  0  0  0  0
  -10.8207    2.4943  -18.0127 N   0  0  0  0  0  0  0  0  0  0  0  0
  -10.2545    2.3757  -15.6907 N   0  0  0  0  0  0  0  0  0  0  0  0
   -8.3629    3.5471  -14.8080 N   0  0  0  0  0  0  0  0  0  0  0  0
   -9.9814    2.8684  -16.9272 C   0  0  0  0  0  0  0  0  0  0  0  0
  -10.6035    2.9345  -19.3115 C   0  0  0  0  0  0  0  0  0  0  0  0
   -8.9100    3.7187  -17.1723 C   0  0  0  0  0  0  0  0  0  0  0  0
   -9.4371    3.8534  -19.5449 C   0  0  0  0  0  0  0  0  0  0  0  0
   -8.6405    4.2469  -18.5291 C   0  0  0  0  0  0  0  0  0  0  0  0
   -8.1334    4.0135  -16.0537 C   0  0  0  0  0  0  0  0  0  0  0  0
   -7.4809    5.2088  -18.6486 C   0  0  0  0  0  0  0  0  0  0  0  0
   -9.4280    2.7444  -14.6989 C   0  0  0  0  0  0  0  0  0  0  0  0
  -11.9188    1.6178  -17.7218 C   0  0  0  0  0  0  0  0  0  0  0  0
  -13.0453    2.3110  -16.9680 C   0  0  0  0  0  0  0  0  0  0  0  0
  -11.5309    0.4675  -16.7969 C   0  0  0  0  0  0  0  0  0  0  0  0
  -13.8514    1.1450  -16.4184 C   0  0  0  0  0  0  0  0  0  0  0  0
  -12.8144    0.0838  -16.0587 C   0  0  0  0  0  0  0  0  0  0  0  0
   -9.7404    5.3236  -21.3488 O   0  0  0  0  0  0  0  0  0  0  0  0
   -9.1868    4.3135  -20.9267 C   0  0  0  0  0  0  0  0  0  0  0  0
   -8.2372    3.5092  -21.7675 C   0  0  0  0  0  0  0  0  0  0  0  0
   -9.7108    2.2325  -13.4142 N   0  0  0  0  0  0  0  0  0  0  0  0
  -10.5296    2.6642  -12.9967 H   0  0  0  0  0  0  0  0  0  0  0  0
   -9.6402    0.9170  -11.4290 N   0  0  0  0  0  0  0  0  0  0  0  0
   -7.8304   -0.6536  -11.1079 C   0  0  0  0  0  0  0  0  0  0  0  0
   -9.0839    1.2547  -12.6191 C   0  0  0  0  0  0  0  0  0  0  0  0
   -7.2843   -0.2861  -12.3326 C   0  0  0  0  0  0  0  0  0  0  0  0
   -8.9992   -0.0279  -10.7050 C   0  0  0  0  0  0  0  0  0  0  0  0
   -7.9147    0.6824  -13.1062 C   0  0  0  0  0  0  0  0  0  0  0  0
   -7.2189   -1.6255  -10.3080 N   0  0  0  0  0  0  0  0  0  0  0  0
   -6.1750   -3.7564   -8.7208 N   0  0  0  0  0  0  0  0  0  0  0  0
   -6.4162   -2.6822  -10.9334 C   0  0  0  0  0  0  0  0  0  0  0  0
   -7.8670   -1.9844   -9.0394 C   0  0  0  0  0  0  0  0  0  0  0  0
   -5.4619   -3.3045   -9.9143 C   0  0  0  0  0  0  0  0  0  0  0  0
   -6.8603   -2.6304   -8.0880 C   0  0  0  0  0  0  0  0  0  0  0  0
   -5.5080   -4.1572   -8.0621 H   0  0  0  0  0  0  0  0  0  0  0  0
  1  6  2  0
 18 19  2  0
  2 13  1  0
  2  5  1  0
  2  6  1  0
  3  5  2  0
  3 12  1  0
 29 31  1  0
 29 32  1  0
 29 24  1  0
 30 33  1  0
 30 34  1  0
 30 35  1  0
  4 10  1  0
  4 12  2  0
 21 12  1  0
 21 25  1  0
 21 22  1  0
 23 25  2  0
 23 27  1  0
 13 14  1  0
 13 15  1  0
 14 16  1  0
 15 17  1  0
 16 17  1  0
  5  7  1  0
  6  8  1  0
  7  9  1  0
  7 10  2  0
  8  9  2  0
  8 19  1  0
  9 11  1  0
 19 20  1  0
 31 33  1  0
 32 34  1  0
 24 26  1  0
 24 27  2  0
 25 28  1  0
 26 28  2  0
M  END
> <PUBCHEM_COMPOUND_CID>
5330286

> <PUBCHEM_CONFORMER_RMSD>
1

> <PUBCHEM_CONFORMER_DIVERSEORDER>
1
15
18
10
7
29
4
11
20
9
2
13
14
12
19
23
17
3
16
5
25
21
8
22
6
24
27
28
26

> <PUBCHEM_MMFF94_PARTIAL_CHARGES>
35
1 -0.57
10 0.3
15 0.43
16 0.62
17 0.03
18 0.03
19 -0.17
2 -0.57
20 0.16
21 0.14
22 0.49
23 0.37
24 0.37
25 0.72
26 0.27
27 0.27
28 0.1
29 0.06
3 -0.48
30 0.41
31 -0.15
32 0.16
33 -0.15
4 -0.62
43 0.15
5 -0.84
55 0.36
56 0.4
6 -0.9
60 0.15
61 0.15
62 0.15
7 -0.62
8 -0.6
9 -0.62

> <PUBCHEM_EFFECTIVE_ROTOR_COUNT>
7.2

> <PUBCHEM_PHARMACOPHORE_FEATURES>
12
1 1 acceptor
1 2 acceptor
1 5 cation
1 6 cation
1 6 donor
1 8 donor
4 4 7 8 25 cation
5 10 11 12 13 14 rings
6 3 15 16 17 18 19 rings
6 4 7 15 17 20 25 rings
6 5 6 23 24 26 27 rings
6 9 28 30 31 32 33 rings

> <PUBCHEM_HEAVY_ATOM_COUNT>
33

> <PUBCHEM_ATOM_DEF_STEREO_COUNT>
0

> <PUBCHEM_ATOM_UDEF_STEREO_COUNT>
0

> <PUBCHEM_BOND_DEF_STEREO_COUNT>
0

> <PUBCHEM_BOND_UDEF_STEREO_COUNT>
0

> <PUBCHEM_ISOTOPIC_ATOM_COUNT>
0

> <PUBCHEM_COMPONENT_COUNT>
1

> <PUBCHEM_CACTVS_TAUTO_COUNT>
40

> <PUBCHEM_CONFORMER_ID>
0051556E00000001

> <PUBCHEM_MMFF94_ENERGY>
112.2749

> <PUBCHEM_FEATURE_SELFOVERLAP>
60.928

> <PUBCHEM_SHAPE_FINGERPRINT>
10 15 18113620079503070019
10006869 2 18337660911033075598
10290309 65 18261668160806117535
10411042 1 17833834151066205419
10454371 7 18271815635581365452
10670039 82 18336557045257456118
1100329 8 18410859884836000811
11049842 53 17758957408797603593
12838862 33 18336812152459687173
13402501 40 18342737446955876920
14117953 113 18407478864468048028
14394314 77 18411423895277741769
14765038 42 18129396924921918577
14790565 3 17476361600547476161
15001296 14 17970350532703957828
15131766 46 14906173210976569938
15274700 259 17751614621592705205
15276724 80 18340768130834745741
15320467 1 18410574002896420408
15419008 145 18261660486753782984
15927050 60 17837772592645818925
15961568 22 18410014329997083054
16992787 43 18338513046236606149
17899979 19 18333452040952282309
18336668 15 18113621230881223333
18608769 82 18412544336032783162
19611394 137 17970641906757496314
20642791 178 18188504557439950781
23559900 14 18270111435023130937
24771293 8 18343306942745392745
335352 9 18411415112686345429
350125 39 18410855456350191706
3918712 181 18337109077499781188
4073 2 18114186349793928090
4197921 191 18260551113780952428
44249763 50 17702651307228616506
46194498 28 17844816884810177550
5776283 40 18267308815225057968
59567204 34 18410575119318352852
59755656 215 18412826885246943006
9961470 85 18123745628582256128

> <PUBCHEM_SHAPE_MULTIPOLES>
632.52
19.34
4.33
0.9
22.72
0.89
-0.07
4.77
-1.48
-1.4
0.18
-0.02
0.52
0.57

> <PUBCHEM_SHAPE_SELFOVERLAP>
1371.714

> <PUBCHEM_SHAPE_VOLUME>
340.7

> <PUBCHEM_COORDINATE_TYPE>
2
5
10

> <minimizedAffinity>
-5.58968

> <CNNscore>
0.1780930310

> <CNNaffinity>
5.3999872208

> <CNN_VS>
0.9617000818

> <CNNaffinity_variance>
0.0463612601

$$$$
5330286


 35 39  0  0  0  0  0  0  0  0999 V2000
  -13.4830   17.2844   15.4220 O   0  0  0  0  0  0  0  0  0  0  0  0
  -15.2168   18.2228   14.2146 N   0  0  0  0  0  0  0  0  0  0  0  0
  -17.0456   19.1452   12.9772 N   0  0  0  0  0  0  0  0  0  0  0  0
  -19.3152   18.7446   13.6234 N   0  0  0  0  0  0  0  0  0  0  0  0
  -16.6156   18.4012   14.0298 C   0  0  0  0  0  0  0  0  0  0  0  0
  -14.6908   17.4626   15.2506 C   0  0  0  0  0  0  0  0  0  0  0  0
  -17.4906   17.8032   14.9284 C   0  0  0  0  0  0  0  0  0  0  0  0
  -15.6624   16.8288   16.2064 C   0  0  0  0  0  0  0  0  0  0  0  0
  -16.9937   17.0039   16.0715 C   0  0  0  0  0  0  0  0  0  0  0  0
  -18.8403   18.0167   14.6561 C   0  0  0  0  0  0  0  0  0  0  0  0
  -18.0472   16.4581   17.0077 C   0  0  0  0  0  0  0  0  0  0  0  0
  -18.3742   19.2754   12.8338 C   0  0  0  0  0  0  0  0  0  0  0  0
  -14.3435   18.8573   13.2694 C   0  0  0  0  0  0  0  0  0  0  0  0
  -13.3049   17.9057   12.6920 C   0  0  0  0  0  0  0  0  0  0  0  0
  -13.4991   19.9653   13.8926 C   0  0  0  0  0  0  0  0  0  0  0  0
  -12.2795   18.8514   12.0874 C   0  0  0  0  0  0  0  0  0  0  0  0
  -12.2300   20.0417   13.0422 C   0  0  0  0  0  0  0  0  0  0  0  0
  -14.9841   14.7922   17.1550 O   0  0  0  0  0  0  0  0  0  0  0  0
  -15.1133   16.0032   17.3022 C   0  0  0  0  0  0  0  0  0  0  0  0
  -14.7216   16.7026   18.5722 C   0  0  0  0  0  0  0  0  0  0  0  0
  -18.8216   20.0477   11.7403 N   0  0  0  0  0  0  0  0  0  0  0  0
  -18.7226   21.0449   11.9040 H   0  0  0  0  0  0  0  0  0  0  0  0
  -18.5339   19.3250    9.4883 N   0  0  0  0  0  0  0  0  0  0  0  0
  -20.4746   19.0365    8.0757 C   0  0  0  0  0  0  0  0  0  0  0  0
  -19.3674   19.7020   10.4898 C   0  0  0  0  0  0  0  0  0  0  0  0
  -21.3033   19.4270    9.1217 C   0  0  0  0  0  0  0  0  0  0  0  0
  -19.1091   19.0022    8.3081 C   0  0  0  0  0  0  0  0  0  0  0  0
  -20.7489   19.7667   10.3509 C   0  0  0  0  0  0  0  0  0  0  0  0
  -21.0038   18.6883    6.8278 N   0  0  0  0  0  0  0  0  0  0  0  0
  -22.2886   18.1175    4.3433 N   0  0  0  0  0  0  0  0  0  0  0  0
  -20.8291   19.5924    5.6859 C   0  0  0  0  0  0  0  0  0  0  0  0
  -22.2102   17.8503    6.7981 C   0  0  0  0  0  0  0  0  0  0  0  0
  -21.0160   18.8366    4.3704 C   0  0  0  0  0  0  0  0  0  0  0  0
  -22.3465   17.1561    5.4434 C   0  0  0  0  0  0  0  0  0  0  0  0
  -22.3750   17.6203    3.4574 H   0  0  0  0  0  0  0  0  0  0  0  0
  1  6  2  0
 18 19  2  0
  2 13  1  0
  2  5  1  0
  2  6  1  0
  3  5  2  0
  3 12  1  0
 29 31  1  0
 29 32  1  0
 29 24  1  0
 30 33  1  0
 30 34  1  0
 30 35  1  0
  4 10  1  0
  4 12  2  0
 21 12  1  0
 21 25  1  0
 21 22  1  0
 23 25  2  0
 23 27  1  0
 13 14  1  0
 13 15  1  0
 14 16  1  0
 15 17  1  0
 16 17  1  0
  5  7  1  0
  6  8  1  0
  7  9  1  0
  7 10  2  0
  8  9  2  0
  8 19  1  0
  9 11  1  0
 19 20  1  0
 31 33  1  0
 32 34  1  0
 24 26  1  0
 24 27  2  0
 25 28  1  0
 26 28  2  0
M  END
> <PUBCHEM_COMPOUND_CID>
5330286

> <PUBCHEM_CONFORMER_RMSD>
1

> <PUBCHEM_CONFORMER_DIVERSEORDER>
1
15
18
10
7
29
4
11
20
9
2
13
14
12
19
23
17
3
16
5
25
21
8
22
6
24
27
28
26

> <PUBCHEM_MMFF94_PARTIAL_CHARGES>
35
1 -0.57
10 0.3
15 0.43
16 0.62
17 0.03
18 0.03
19 -0.17
2 -0.57
20 0.16
21 0.14
22 0.49
23 0.37
24 0.37
25 0.72
26 0.27
27 0.27
28 0.1
29 0.06
3 -0.48
30 0.41
31 -0.15
32 0.16
33 -0.15
4 -0.62
43 0.15
5 -0.84
55 0.36
56 0.4
6 -0.9
60 0.15
61 0.15
62 0.15
7 -0.62
8 -0.6
9 -0.62

> <PUBCHEM_EFFECTIVE_ROTOR_COUNT>
7.2

> <PUBCHEM_PHARMACOPHORE_FEATURES>
12
1 1 acceptor
1 2 acceptor
1 5 cation
1 6 cation
1 6 donor
1 8 donor
4 4 7 8 25 cation
5 10 11 12 13 14 rings
6 3 15 16 17 18 19 rings
6 4 7 15 17 20 25 rings
6 5 6 23 24 26 27 rings
6 9 28 30 31 32 33 rings

> <PUBCHEM_HEAVY_ATOM_COUNT>
33

> <PUBCHEM_ATOM_DEF_STEREO_COUNT>
0

> <PUBCHEM_ATOM_UDEF_STEREO_COUNT>
0

> <PUBCHEM_BOND_DEF_STEREO_COUNT>
0

> <PUBCHEM_BOND_UDEF_STEREO_COUNT>
0

> <PUBCHEM_ISOTOPIC_ATOM_COUNT>
0

> <PUBCHEM_COMPONENT_COUNT>
1

> <PUBCHEM_CACTVS_TAUTO_COUNT>
40

> <PUBCHEM_CONFORMER_ID>
0051556E00000001

> <PUBCHEM_MMFF94_ENERGY>
112.2749

> <PUBCHEM_FEATURE_SELFOVERLAP>
60.928

> <PUBCHEM_SHAPE_FINGERPRINT>
10 15 18113620079503070019
10006869 2 18337660911033075598
10290309 65 18261668160806117535
10411042 1 17833834151066205419
10454371 7 18271815635581365452
10670039 82 18336557045257456118
1100329 8 18410859884836000811
11049842 53 17758957408797603593
12838862 33 18336812152459687173
13402501 40 18342737446955876920
14117953 113 18407478864468048028
14394314 77 18411423895277741769
14765038 42 18129396924921918577
14790565 3 17476361600547476161
15001296 14 17970350532703957828
15131766 46 14906173210976569938
15274700 259 17751614621592705205
15276724 80 18340768130834745741
15320467 1 18410574002896420408
15419008 145 18261660486753782984
15927050 60 17837772592645818925
15961568 22 18410014329997083054
16992787 43 18338513046236606149
17899979 19 18333452040952282309
18336668 15 18113621230881223333
18608769 82 18412544336032783162
19611394 137 17970641906757496314
20642791 178 18188504557439950781
23559900 14 18270111435023130937
24771293 8 18343306942745392745
335352 9 18411415112686345429
350125 39 18410855456350191706
3918712 181 18337109077499781188
4073 2 18114186349793928090
4197921 191 18260551113780952428
44249763 50 17702651307228616506
46194498 28 17844816884810177550
5776283 40 18267308815225057968
59567204 34 18410575119318352852
59755656 215 18412826885246943006
9961470 85 18123745628582256128

> <PUBCHEM_SHAPE_MULTIPOLES>
632.52
19.34
4.33
0.9
22.72
0.89
-0.07
4.77
-1.48
-1.4
0.18
-0.02
0.52
0.57

> <PUBCHEM_SHAPE_SELFOVERLAP>
1371.714

> <PUBCHEM_SHAPE_VOLUME>
340.7

> <PUBCHEM_COORDINATE_TYPE>
2
5
10

> <minimizedAffinity>
-5.86356

> <CNNscore>
0.1738097072

> <CNNaffinity>
5.1440911293

> <CNN_VS>
0.8940929770

> <CNNaffinity_variance>
0.2352296114

$$$$
